
---------- Begin Simulation Statistics ----------
simSeconds                                  32.159262                       # Number of seconds simulated (Second)
simTicks                                 32159261661000                       # Number of ticks simulated (Tick)
finalTick                                32159261661000                       # Number of ticks from beginning of simulation (restored from checkpoints and never reset) (Tick)
simFreq                                  1000000000000                       # The number of ticks per simulated second ((Tick/Second))
hostSeconds                                     33.69                       # Real time elapsed on the host (Second)
hostTickRate                             954641516120                       # The number of ticks simulated per host second (ticks/s) ((Tick/Second))
hostMemory                                    8766292                       # Number of bytes of host memory used (Byte)
simInsts                                   6751661355                       # Number of instructions simulated (Count)
simOps                                     6751661355                       # Number of ops (including micro ops) simulated (Count)
hostInstRate                                200421381                       # Simulator instruction rate (inst/s) ((Count/Second))
hostOpRate                                  200421350                       # Simulator op (including micro ops) rate (op/s) ((Count/Second))
system.apicbridge.power_state.pwrStateResidencyTicks::UNDEFINED 32159261661000                       # Cumulative time (in ticks) in various power states (Tick)
system.bridge.power_state.pwrStateResidencyTicks::UNDEFINED 32159261661000                       # Cumulative time (in ticks) in various power states (Tick)
system.clk_domain.clock                          1000                       # Clock period in ticks (Tick)
system.cpu0.numCycles                     65811911449                       # Number of cpu cycles simulated (Cycle)
system.cpu0.numWorkItemsStarted                     0                       # Number of work items this cpu started (Count)
system.cpu0.numWorkItemsCompleted                   0                       # Number of work items this cpu completed (Count)
system.cpu0.committedInsts                 3675299414                       # Number of instructions committed (Count)
system.cpu0.numVMExits                          98674                       # total number of KVM exits (Count)
system.cpu0.numVMHalfEntries                        0                       # number of KVM entries to finalize pending operations (Count)
system.cpu0.numExitSignal                       33033                       # exits due to signal delivery (Count)
system.cpu0.numMMIO                             24189                       # number of VM exits due to memory mapped IO (Count)
system.cpu0.numCoalescedMMIO                        0                       # number of coalesced memory mapped IO requests (Count)
system.cpu0.numIO                               20029                       # number of VM exits due to legacy IO (Count)
system.cpu0.numHalt                             19361                       # number of VM exits due to wait for interrupt instructions (Count)
system.cpu0.numInterrupts                       22163                       # number of interrupts delivered (Count)
system.cpu0.numHypercalls                           0                       # number of hypercalls (Count)
system.cpu0.interrupts.clk_domain.clock          8000                       # Clock period in ticks (Tick)
system.cpu0.mmu.dtb.rdAccesses                      0                       # TLB accesses on read requests (Count)
system.cpu0.mmu.dtb.wrAccesses                      0                       # TLB accesses on write requests (Count)
system.cpu0.mmu.dtb.rdMisses                        0                       # TLB misses on read requests (Count)
system.cpu0.mmu.dtb.wrMisses                        0                       # TLB misses on write requests (Count)
system.cpu0.mmu.dtb.walker.power_state.pwrStateResidencyTicks::UNDEFINED 32159261661000                       # Cumulative time (in ticks) in various power states (Tick)
system.cpu0.mmu.itb.rdAccesses                      0                       # TLB accesses on read requests (Count)
system.cpu0.mmu.itb.wrAccesses                      0                       # TLB accesses on write requests (Count)
system.cpu0.mmu.itb.rdMisses                        0                       # TLB misses on read requests (Count)
system.cpu0.mmu.itb.wrMisses                        0                       # TLB misses on write requests (Count)
system.cpu0.mmu.itb.walker.power_state.pwrStateResidencyTicks::UNDEFINED 32159261661000                       # Cumulative time (in ticks) in various power states (Tick)
system.cpu0.power_state.pwrStateResidencyTicks::ON 32159261661000                       # Cumulative time (in ticks) in various power states (Tick)
system.cpu0.thread_0.numInsts                       0                       # Number of Instructions committed (Count)
system.cpu0.thread_0.numOps                         0                       # Number of Ops committed (Count)
system.cpu0.thread_0.numMemRefs                     0                       # Number of Memory References (Count)
system.cpu1.numCycles                     64349486194                       # Number of cpu cycles simulated (Cycle)
system.cpu1.numWorkItemsStarted                     0                       # Number of work items this cpu started (Count)
system.cpu1.numWorkItemsCompleted                   0                       # Number of work items this cpu completed (Count)
system.cpu1.committedInsts                  198645542                       # Number of instructions committed (Count)
system.cpu1.numVMExits                         102364                       # total number of KVM exits (Count)
system.cpu1.numVMHalfEntries                        1                       # number of KVM entries to finalize pending operations (Count)
system.cpu1.numExitSignal                       33553                       # exits due to signal delivery (Count)
system.cpu1.numMMIO                             30250                       # number of VM exits due to memory mapped IO (Count)
system.cpu1.numCoalescedMMIO                        0                       # number of coalesced memory mapped IO requests (Count)
system.cpu1.numIO                               13870                       # number of VM exits due to legacy IO (Count)
system.cpu1.numHalt                             18561                       # number of VM exits due to wait for interrupt instructions (Count)
system.cpu1.numInterrupts                       24736                       # number of interrupts delivered (Count)
system.cpu1.numHypercalls                           0                       # number of hypercalls (Count)
system.cpu1.interrupts.clk_domain.clock          8000                       # Clock period in ticks (Tick)
system.cpu1.mmu.dtb.rdAccesses                      0                       # TLB accesses on read requests (Count)
system.cpu1.mmu.dtb.wrAccesses                      0                       # TLB accesses on write requests (Count)
system.cpu1.mmu.dtb.rdMisses                        0                       # TLB misses on read requests (Count)
system.cpu1.mmu.dtb.wrMisses                        0                       # TLB misses on write requests (Count)
system.cpu1.mmu.dtb.walker.power_state.pwrStateResidencyTicks::UNDEFINED 32159261661000                       # Cumulative time (in ticks) in various power states (Tick)
system.cpu1.mmu.itb.rdAccesses                      0                       # TLB accesses on read requests (Count)
system.cpu1.mmu.itb.wrAccesses                      0                       # TLB accesses on write requests (Count)
system.cpu1.mmu.itb.rdMisses                        0                       # TLB misses on read requests (Count)
system.cpu1.mmu.itb.wrMisses                        0                       # TLB misses on write requests (Count)
system.cpu1.mmu.itb.walker.power_state.pwrStateResidencyTicks::UNDEFINED 32159261661000                       # Cumulative time (in ticks) in various power states (Tick)
system.cpu1.power_state.pwrStateResidencyTicks::ON 32159261661000                       # Cumulative time (in ticks) in various power states (Tick)
system.cpu1.thread_0.numInsts                       0                       # Number of Instructions committed (Count)
system.cpu1.thread_0.numOps                         0                       # Number of Ops committed (Count)
system.cpu1.thread_0.numMemRefs                     0                       # Number of Memory References (Count)
system.cpu10.numCycles                    64380515878                       # Number of cpu cycles simulated (Cycle)
system.cpu10.numWorkItemsStarted                    0                       # Number of work items this cpu started (Count)
system.cpu10.numWorkItemsCompleted                  0                       # Number of work items this cpu completed (Count)
system.cpu10.committedInsts                 290741409                       # Number of instructions committed (Count)
system.cpu10.numVMExits                         89959                       # total number of KVM exits (Count)
system.cpu10.numVMHalfEntries                       0                       # number of KVM entries to finalize pending operations (Count)
system.cpu10.numExitSignal                      30022                       # exits due to signal delivery (Count)
system.cpu10.numMMIO                            29830                       # number of VM exits due to memory mapped IO (Count)
system.cpu10.numCoalescedMMIO                       0                       # number of coalesced memory mapped IO requests (Count)
system.cpu10.numIO                                994                       # number of VM exits due to legacy IO (Count)
system.cpu10.numHalt                            17484                       # number of VM exits due to wait for interrupt instructions (Count)
system.cpu10.numInterrupts                      29185                       # number of interrupts delivered (Count)
system.cpu10.numHypercalls                          0                       # number of hypercalls (Count)
system.cpu10.interrupts.clk_domain.clock         8000                       # Clock period in ticks (Tick)
system.cpu10.mmu.dtb.rdAccesses                     0                       # TLB accesses on read requests (Count)
system.cpu10.mmu.dtb.wrAccesses                     0                       # TLB accesses on write requests (Count)
system.cpu10.mmu.dtb.rdMisses                       0                       # TLB misses on read requests (Count)
system.cpu10.mmu.dtb.wrMisses                       0                       # TLB misses on write requests (Count)
system.cpu10.mmu.dtb.walker.power_state.pwrStateResidencyTicks::UNDEFINED 32159261661000                       # Cumulative time (in ticks) in various power states (Tick)
system.cpu10.mmu.itb.rdAccesses                     0                       # TLB accesses on read requests (Count)
system.cpu10.mmu.itb.wrAccesses                     0                       # TLB accesses on write requests (Count)
system.cpu10.mmu.itb.rdMisses                       0                       # TLB misses on read requests (Count)
system.cpu10.mmu.itb.wrMisses                       0                       # TLB misses on write requests (Count)
system.cpu10.mmu.itb.walker.power_state.pwrStateResidencyTicks::UNDEFINED 32159261661000                       # Cumulative time (in ticks) in various power states (Tick)
system.cpu10.power_state.pwrStateResidencyTicks::ON 32159261661000                       # Cumulative time (in ticks) in various power states (Tick)
system.cpu10.thread_0.numInsts                      0                       # Number of Instructions committed (Count)
system.cpu10.thread_0.numOps                        0                       # Number of Ops committed (Count)
system.cpu10.thread_0.numMemRefs                    0                       # Number of Memory References (Count)
system.cpu11.numCycles                    64375290472                       # Number of cpu cycles simulated (Cycle)
system.cpu11.numWorkItemsStarted                    0                       # Number of work items this cpu started (Count)
system.cpu11.numWorkItemsCompleted                  0                       # Number of work items this cpu completed (Count)
system.cpu11.committedInsts                 296116743                       # Number of instructions committed (Count)
system.cpu11.numVMExits                         95646                       # total number of KVM exits (Count)
system.cpu11.numVMHalfEntries                       0                       # number of KVM entries to finalize pending operations (Count)
system.cpu11.numExitSignal                      30411                       # exits due to signal delivery (Count)
system.cpu11.numMMIO                            30591                       # number of VM exits due to memory mapped IO (Count)
system.cpu11.numCoalescedMMIO                       0                       # number of coalesced memory mapped IO requests (Count)
system.cpu11.numIO                               5077                       # number of VM exits due to legacy IO (Count)
system.cpu11.numHalt                            17536                       # number of VM exits due to wait for interrupt instructions (Count)
system.cpu11.numInterrupts                      29649                       # number of interrupts delivered (Count)
system.cpu11.numHypercalls                          0                       # number of hypercalls (Count)
system.cpu11.interrupts.clk_domain.clock         8000                       # Clock period in ticks (Tick)
system.cpu11.mmu.dtb.rdAccesses                     0                       # TLB accesses on read requests (Count)
system.cpu11.mmu.dtb.wrAccesses                     0                       # TLB accesses on write requests (Count)
system.cpu11.mmu.dtb.rdMisses                       0                       # TLB misses on read requests (Count)
system.cpu11.mmu.dtb.wrMisses                       0                       # TLB misses on write requests (Count)
system.cpu11.mmu.dtb.walker.power_state.pwrStateResidencyTicks::UNDEFINED 32159261661000                       # Cumulative time (in ticks) in various power states (Tick)
system.cpu11.mmu.itb.rdAccesses                     0                       # TLB accesses on read requests (Count)
system.cpu11.mmu.itb.wrAccesses                     0                       # TLB accesses on write requests (Count)
system.cpu11.mmu.itb.rdMisses                       0                       # TLB misses on read requests (Count)
system.cpu11.mmu.itb.wrMisses                       0                       # TLB misses on write requests (Count)
system.cpu11.mmu.itb.walker.power_state.pwrStateResidencyTicks::UNDEFINED 32159261661000                       # Cumulative time (in ticks) in various power states (Tick)
system.cpu11.power_state.pwrStateResidencyTicks::ON 32159261661000                       # Cumulative time (in ticks) in various power states (Tick)
system.cpu11.thread_0.numInsts                      0                       # Number of Instructions committed (Count)
system.cpu11.thread_0.numOps                        0                       # Number of Ops committed (Count)
system.cpu11.thread_0.numMemRefs                    0                       # Number of Memory References (Count)
system.cpu12.numCycles                    64346415151                       # Number of cpu cycles simulated (Cycle)
system.cpu12.numWorkItemsStarted                    0                       # Number of work items this cpu started (Count)
system.cpu12.numWorkItemsCompleted                  0                       # Number of work items this cpu completed (Count)
system.cpu12.committedInsts                 209634005                       # Number of instructions committed (Count)
system.cpu12.numVMExits                         91490                       # total number of KVM exits (Count)
system.cpu12.numVMHalfEntries                       0                       # number of KVM entries to finalize pending operations (Count)
system.cpu12.numExitSignal                      29771                       # exits due to signal delivery (Count)
system.cpu12.numMMIO                            30045                       # number of VM exits due to memory mapped IO (Count)
system.cpu12.numCoalescedMMIO                       0                       # number of coalesced memory mapped IO requests (Count)
system.cpu12.numIO                               2172                       # number of VM exits due to legacy IO (Count)
system.cpu12.numHalt                            17542                       # number of VM exits due to wait for interrupt instructions (Count)
system.cpu12.numInterrupts                      29562                       # number of interrupts delivered (Count)
system.cpu12.numHypercalls                          0                       # number of hypercalls (Count)
system.cpu12.interrupts.clk_domain.clock         8000                       # Clock period in ticks (Tick)
system.cpu12.mmu.dtb.rdAccesses                     0                       # TLB accesses on read requests (Count)
system.cpu12.mmu.dtb.wrAccesses                     0                       # TLB accesses on write requests (Count)
system.cpu12.mmu.dtb.rdMisses                       0                       # TLB misses on read requests (Count)
system.cpu12.mmu.dtb.wrMisses                       0                       # TLB misses on write requests (Count)
system.cpu12.mmu.dtb.walker.power_state.pwrStateResidencyTicks::UNDEFINED 32159261661000                       # Cumulative time (in ticks) in various power states (Tick)
system.cpu12.mmu.itb.rdAccesses                     0                       # TLB accesses on read requests (Count)
system.cpu12.mmu.itb.wrAccesses                     0                       # TLB accesses on write requests (Count)
system.cpu12.mmu.itb.rdMisses                       0                       # TLB misses on read requests (Count)
system.cpu12.mmu.itb.wrMisses                       0                       # TLB misses on write requests (Count)
system.cpu12.mmu.itb.walker.power_state.pwrStateResidencyTicks::UNDEFINED 32159261661000                       # Cumulative time (in ticks) in various power states (Tick)
system.cpu12.power_state.pwrStateResidencyTicks::ON 32159261661000                       # Cumulative time (in ticks) in various power states (Tick)
system.cpu12.thread_0.numInsts                      0                       # Number of Instructions committed (Count)
system.cpu12.thread_0.numOps                        0                       # Number of Ops committed (Count)
system.cpu12.thread_0.numMemRefs                    0                       # Number of Memory References (Count)
system.cpu13.numCycles                    64361590676                       # Number of cpu cycles simulated (Cycle)
system.cpu13.numWorkItemsStarted                    0                       # Number of work items this cpu started (Count)
system.cpu13.numWorkItemsCompleted                  0                       # Number of work items this cpu completed (Count)
system.cpu13.committedInsts                 262077033                       # Number of instructions committed (Count)
system.cpu13.numVMExits                         91962                       # total number of KVM exits (Count)
system.cpu13.numVMHalfEntries                       0                       # number of KVM entries to finalize pending operations (Count)
system.cpu13.numExitSignal                      30117                       # exits due to signal delivery (Count)
system.cpu13.numMMIO                            30482                       # number of VM exits due to memory mapped IO (Count)
system.cpu13.numCoalescedMMIO                       0                       # number of coalesced memory mapped IO requests (Count)
system.cpu13.numIO                               1453                       # number of VM exits due to legacy IO (Count)
system.cpu13.numHalt                            17712                       # number of VM exits due to wait for interrupt instructions (Count)
system.cpu13.numInterrupts                      29981                       # number of interrupts delivered (Count)
system.cpu13.numHypercalls                          0                       # number of hypercalls (Count)
system.cpu13.interrupts.clk_domain.clock         8000                       # Clock period in ticks (Tick)
system.cpu13.mmu.dtb.rdAccesses                     0                       # TLB accesses on read requests (Count)
system.cpu13.mmu.dtb.wrAccesses                     0                       # TLB accesses on write requests (Count)
system.cpu13.mmu.dtb.rdMisses                       0                       # TLB misses on read requests (Count)
system.cpu13.mmu.dtb.wrMisses                       0                       # TLB misses on write requests (Count)
system.cpu13.mmu.dtb.walker.power_state.pwrStateResidencyTicks::UNDEFINED 32159261661000                       # Cumulative time (in ticks) in various power states (Tick)
system.cpu13.mmu.itb.rdAccesses                     0                       # TLB accesses on read requests (Count)
system.cpu13.mmu.itb.wrAccesses                     0                       # TLB accesses on write requests (Count)
system.cpu13.mmu.itb.rdMisses                       0                       # TLB misses on read requests (Count)
system.cpu13.mmu.itb.wrMisses                       0                       # TLB misses on write requests (Count)
system.cpu13.mmu.itb.walker.power_state.pwrStateResidencyTicks::UNDEFINED 32159261661000                       # Cumulative time (in ticks) in various power states (Tick)
system.cpu13.power_state.pwrStateResidencyTicks::ON 32159261661000                       # Cumulative time (in ticks) in various power states (Tick)
system.cpu13.thread_0.numInsts                      0                       # Number of Instructions committed (Count)
system.cpu13.thread_0.numOps                        0                       # Number of Ops committed (Count)
system.cpu13.thread_0.numMemRefs                    0                       # Number of Memory References (Count)
system.cpu14.numCycles                    64340573361                       # Number of cpu cycles simulated (Cycle)
system.cpu14.numWorkItemsStarted                    0                       # Number of work items this cpu started (Count)
system.cpu14.numWorkItemsCompleted                  0                       # Number of work items this cpu completed (Count)
system.cpu14.committedInsts                 151523499                       # Number of instructions committed (Count)
system.cpu14.numVMExits                         89024                       # total number of KVM exits (Count)
system.cpu14.numVMHalfEntries                       1                       # number of KVM entries to finalize pending operations (Count)
system.cpu14.numExitSignal                      28665                       # exits due to signal delivery (Count)
system.cpu14.numMMIO                            29920                       # number of VM exits due to memory mapped IO (Count)
system.cpu14.numCoalescedMMIO                       0                       # number of coalesced memory mapped IO requests (Count)
system.cpu14.numIO                               1113                       # number of VM exits due to legacy IO (Count)
system.cpu14.numHalt                            17711                       # number of VM exits due to wait for interrupt instructions (Count)
system.cpu14.numInterrupts                      29395                       # number of interrupts delivered (Count)
system.cpu14.numHypercalls                          0                       # number of hypercalls (Count)
system.cpu14.interrupts.clk_domain.clock         8000                       # Clock period in ticks (Tick)
system.cpu14.mmu.dtb.rdAccesses                     0                       # TLB accesses on read requests (Count)
system.cpu14.mmu.dtb.wrAccesses                     0                       # TLB accesses on write requests (Count)
system.cpu14.mmu.dtb.rdMisses                       0                       # TLB misses on read requests (Count)
system.cpu14.mmu.dtb.wrMisses                       0                       # TLB misses on write requests (Count)
system.cpu14.mmu.dtb.walker.power_state.pwrStateResidencyTicks::UNDEFINED 32159261661000                       # Cumulative time (in ticks) in various power states (Tick)
system.cpu14.mmu.itb.rdAccesses                     0                       # TLB accesses on read requests (Count)
system.cpu14.mmu.itb.wrAccesses                     0                       # TLB accesses on write requests (Count)
system.cpu14.mmu.itb.rdMisses                       0                       # TLB misses on read requests (Count)
system.cpu14.mmu.itb.wrMisses                       0                       # TLB misses on write requests (Count)
system.cpu14.mmu.itb.walker.power_state.pwrStateResidencyTicks::UNDEFINED 32159261661000                       # Cumulative time (in ticks) in various power states (Tick)
system.cpu14.power_state.pwrStateResidencyTicks::ON 32159261661000                       # Cumulative time (in ticks) in various power states (Tick)
system.cpu14.thread_0.numInsts                      0                       # Number of Instructions committed (Count)
system.cpu14.thread_0.numOps                        0                       # Number of Ops committed (Count)
system.cpu14.thread_0.numMemRefs                    0                       # Number of Memory References (Count)
system.cpu15.numCycles                    64343775457                       # Number of cpu cycles simulated (Cycle)
system.cpu15.numWorkItemsStarted                    0                       # Number of work items this cpu started (Count)
system.cpu15.numWorkItemsCompleted                  0                       # Number of work items this cpu completed (Count)
system.cpu15.committedInsts                 134176568                       # Number of instructions committed (Count)
system.cpu15.numVMExits                         90951                       # total number of KVM exits (Count)
system.cpu15.numVMHalfEntries                       0                       # number of KVM entries to finalize pending operations (Count)
system.cpu15.numExitSignal                      29334                       # exits due to signal delivery (Count)
system.cpu15.numMMIO                            30625                       # number of VM exits due to memory mapped IO (Count)
system.cpu15.numCoalescedMMIO                       0                       # number of coalesced memory mapped IO requests (Count)
system.cpu15.numIO                               1265                       # number of VM exits due to legacy IO (Count)
system.cpu15.numHalt                            17754                       # number of VM exits due to wait for interrupt instructions (Count)
system.cpu15.numInterrupts                      29794                       # number of interrupts delivered (Count)
system.cpu15.numHypercalls                          0                       # number of hypercalls (Count)
system.cpu15.interrupts.clk_domain.clock         8000                       # Clock period in ticks (Tick)
system.cpu15.mmu.dtb.rdAccesses                     0                       # TLB accesses on read requests (Count)
system.cpu15.mmu.dtb.wrAccesses                     0                       # TLB accesses on write requests (Count)
system.cpu15.mmu.dtb.rdMisses                       0                       # TLB misses on read requests (Count)
system.cpu15.mmu.dtb.wrMisses                       0                       # TLB misses on write requests (Count)
system.cpu15.mmu.dtb.walker.power_state.pwrStateResidencyTicks::UNDEFINED 32159261661000                       # Cumulative time (in ticks) in various power states (Tick)
system.cpu15.mmu.itb.rdAccesses                     0                       # TLB accesses on read requests (Count)
system.cpu15.mmu.itb.wrAccesses                     0                       # TLB accesses on write requests (Count)
system.cpu15.mmu.itb.rdMisses                       0                       # TLB misses on read requests (Count)
system.cpu15.mmu.itb.wrMisses                       0                       # TLB misses on write requests (Count)
system.cpu15.mmu.itb.walker.power_state.pwrStateResidencyTicks::UNDEFINED 32159261661000                       # Cumulative time (in ticks) in various power states (Tick)
system.cpu15.power_state.pwrStateResidencyTicks::ON 32159261661000                       # Cumulative time (in ticks) in various power states (Tick)
system.cpu15.thread_0.numInsts                      0                       # Number of Instructions committed (Count)
system.cpu15.thread_0.numOps                        0                       # Number of Ops committed (Count)
system.cpu15.thread_0.numMemRefs                    0                       # Number of Memory References (Count)
system.cpu2.numCycles                     64394193237                       # Number of cpu cycles simulated (Cycle)
system.cpu2.numWorkItemsStarted                     0                       # Number of work items this cpu started (Count)
system.cpu2.numWorkItemsCompleted                   0                       # Number of work items this cpu completed (Count)
system.cpu2.committedInsts                  480265966                       # Number of instructions committed (Count)
system.cpu2.numVMExits                          90630                       # total number of KVM exits (Count)
system.cpu2.numVMHalfEntries                        0                       # number of KVM entries to finalize pending operations (Count)
system.cpu2.numExitSignal                       31543                       # exits due to signal delivery (Count)
system.cpu2.numMMIO                             26350                       # number of VM exits due to memory mapped IO (Count)
system.cpu2.numCoalescedMMIO                        0                       # number of coalesced memory mapped IO requests (Count)
system.cpu2.numIO                                8723                       # number of VM exits due to legacy IO (Count)
system.cpu2.numHalt                             17873                       # number of VM exits due to wait for interrupt instructions (Count)
system.cpu2.numInterrupts                       24082                       # number of interrupts delivered (Count)
system.cpu2.numHypercalls                           0                       # number of hypercalls (Count)
system.cpu2.interrupts.clk_domain.clock          8000                       # Clock period in ticks (Tick)
system.cpu2.mmu.dtb.rdAccesses                      0                       # TLB accesses on read requests (Count)
system.cpu2.mmu.dtb.wrAccesses                      0                       # TLB accesses on write requests (Count)
system.cpu2.mmu.dtb.rdMisses                        0                       # TLB misses on read requests (Count)
system.cpu2.mmu.dtb.wrMisses                        0                       # TLB misses on write requests (Count)
system.cpu2.mmu.dtb.walker.power_state.pwrStateResidencyTicks::UNDEFINED 32159261661000                       # Cumulative time (in ticks) in various power states (Tick)
system.cpu2.mmu.itb.rdAccesses                      0                       # TLB accesses on read requests (Count)
system.cpu2.mmu.itb.wrAccesses                      0                       # TLB accesses on write requests (Count)
system.cpu2.mmu.itb.rdMisses                        0                       # TLB misses on read requests (Count)
system.cpu2.mmu.itb.wrMisses                        0                       # TLB misses on write requests (Count)
system.cpu2.mmu.itb.walker.power_state.pwrStateResidencyTicks::UNDEFINED 32159261661000                       # Cumulative time (in ticks) in various power states (Tick)
system.cpu2.power_state.pwrStateResidencyTicks::ON 32159261661000                       # Cumulative time (in ticks) in various power states (Tick)
system.cpu2.thread_0.numInsts                       0                       # Number of Instructions committed (Count)
system.cpu2.thread_0.numOps                         0                       # Number of Ops committed (Count)
system.cpu2.thread_0.numMemRefs                     0                       # Number of Memory References (Count)
system.cpu3.numCycles                     64332634380                       # Number of cpu cycles simulated (Cycle)
system.cpu3.numWorkItemsStarted                     0                       # Number of work items this cpu started (Count)
system.cpu3.numWorkItemsCompleted                   0                       # Number of work items this cpu completed (Count)
system.cpu3.committedInsts                  113316606                       # Number of instructions committed (Count)
system.cpu3.numVMExits                          83660                       # total number of KVM exits (Count)
system.cpu3.numVMHalfEntries                        0                       # number of KVM entries to finalize pending operations (Count)
system.cpu3.numExitSignal                       31338                       # exits due to signal delivery (Count)
system.cpu3.numMMIO                             26193                       # number of VM exits due to memory mapped IO (Count)
system.cpu3.numCoalescedMMIO                        0                       # number of coalesced memory mapped IO requests (Count)
system.cpu3.numIO                                 879                       # number of VM exits due to legacy IO (Count)
system.cpu3.numHalt                             17647                       # number of VM exits due to wait for interrupt instructions (Count)
system.cpu3.numInterrupts                       25278                       # number of interrupts delivered (Count)
system.cpu3.numHypercalls                           0                       # number of hypercalls (Count)
system.cpu3.interrupts.clk_domain.clock          8000                       # Clock period in ticks (Tick)
system.cpu3.mmu.dtb.rdAccesses                      0                       # TLB accesses on read requests (Count)
system.cpu3.mmu.dtb.wrAccesses                      0                       # TLB accesses on write requests (Count)
system.cpu3.mmu.dtb.rdMisses                        0                       # TLB misses on read requests (Count)
system.cpu3.mmu.dtb.wrMisses                        0                       # TLB misses on write requests (Count)
system.cpu3.mmu.dtb.walker.power_state.pwrStateResidencyTicks::UNDEFINED 32159261661000                       # Cumulative time (in ticks) in various power states (Tick)
system.cpu3.mmu.itb.rdAccesses                      0                       # TLB accesses on read requests (Count)
system.cpu3.mmu.itb.wrAccesses                      0                       # TLB accesses on write requests (Count)
system.cpu3.mmu.itb.rdMisses                        0                       # TLB misses on read requests (Count)
system.cpu3.mmu.itb.wrMisses                        0                       # TLB misses on write requests (Count)
system.cpu3.mmu.itb.walker.power_state.pwrStateResidencyTicks::UNDEFINED 32159261661000                       # Cumulative time (in ticks) in various power states (Tick)
system.cpu3.power_state.pwrStateResidencyTicks::ON 32159261661000                       # Cumulative time (in ticks) in various power states (Tick)
system.cpu3.thread_0.numInsts                       0                       # Number of Instructions committed (Count)
system.cpu3.thread_0.numOps                         0                       # Number of Ops committed (Count)
system.cpu3.thread_0.numMemRefs                     0                       # Number of Memory References (Count)
system.cpu4.numCycles                     64328873153                       # Number of cpu cycles simulated (Cycle)
system.cpu4.numWorkItemsStarted                     0                       # Number of work items this cpu started (Count)
system.cpu4.numWorkItemsCompleted                   0                       # Number of work items this cpu completed (Count)
system.cpu4.committedInsts                  199151904                       # Number of instructions committed (Count)
system.cpu4.numVMExits                          86059                       # total number of KVM exits (Count)
system.cpu4.numVMHalfEntries                        1                       # number of KVM entries to finalize pending operations (Count)
system.cpu4.numExitSignal                       31098                       # exits due to signal delivery (Count)
system.cpu4.numMMIO                             26754                       # number of VM exits due to memory mapped IO (Count)
system.cpu4.numCoalescedMMIO                        0                       # number of coalesced memory mapped IO requests (Count)
system.cpu4.numIO                                1951                       # number of VM exits due to legacy IO (Count)
system.cpu4.numHalt                             17440                       # number of VM exits due to wait for interrupt instructions (Count)
system.cpu4.numInterrupts                       26301                       # number of interrupts delivered (Count)
system.cpu4.numHypercalls                           0                       # number of hypercalls (Count)
system.cpu4.interrupts.clk_domain.clock          8000                       # Clock period in ticks (Tick)
system.cpu4.mmu.dtb.rdAccesses                      0                       # TLB accesses on read requests (Count)
system.cpu4.mmu.dtb.wrAccesses                      0                       # TLB accesses on write requests (Count)
system.cpu4.mmu.dtb.rdMisses                        0                       # TLB misses on read requests (Count)
system.cpu4.mmu.dtb.wrMisses                        0                       # TLB misses on write requests (Count)
system.cpu4.mmu.dtb.walker.power_state.pwrStateResidencyTicks::UNDEFINED 32159261661000                       # Cumulative time (in ticks) in various power states (Tick)
system.cpu4.mmu.itb.rdAccesses                      0                       # TLB accesses on read requests (Count)
system.cpu4.mmu.itb.wrAccesses                      0                       # TLB accesses on write requests (Count)
system.cpu4.mmu.itb.rdMisses                        0                       # TLB misses on read requests (Count)
system.cpu4.mmu.itb.wrMisses                        0                       # TLB misses on write requests (Count)
system.cpu4.mmu.itb.walker.power_state.pwrStateResidencyTicks::UNDEFINED 32159261661000                       # Cumulative time (in ticks) in various power states (Tick)
system.cpu4.power_state.pwrStateResidencyTicks::ON 32159261661000                       # Cumulative time (in ticks) in various power states (Tick)
system.cpu4.thread_0.numInsts                       0                       # Number of Instructions committed (Count)
system.cpu4.thread_0.numOps                         0                       # Number of Ops committed (Count)
system.cpu4.thread_0.numMemRefs                     0                       # Number of Memory References (Count)
system.cpu5.numCycles                     64318054440                       # Number of cpu cycles simulated (Cycle)
system.cpu5.numWorkItemsStarted                     0                       # Number of work items this cpu started (Count)
system.cpu5.numWorkItemsCompleted                   0                       # Number of work items this cpu completed (Count)
system.cpu5.committedInsts                  216104075                       # Number of instructions committed (Count)
system.cpu5.numVMExits                         162752                       # total number of KVM exits (Count)
system.cpu5.numVMHalfEntries                        0                       # number of KVM entries to finalize pending operations (Count)
system.cpu5.numExitSignal                       38334                       # exits due to signal delivery (Count)
system.cpu5.numMMIO                             51267                       # number of VM exits due to memory mapped IO (Count)
system.cpu5.numCoalescedMMIO                        0                       # number of coalesced memory mapped IO requests (Count)
system.cpu5.numIO                               38337                       # number of VM exits due to legacy IO (Count)
system.cpu5.numHalt                             18085                       # number of VM exits due to wait for interrupt instructions (Count)
system.cpu5.numInterrupts                       34844                       # number of interrupts delivered (Count)
system.cpu5.numHypercalls                           0                       # number of hypercalls (Count)
system.cpu5.interrupts.clk_domain.clock          8000                       # Clock period in ticks (Tick)
system.cpu5.mmu.dtb.rdAccesses                      0                       # TLB accesses on read requests (Count)
system.cpu5.mmu.dtb.wrAccesses                      0                       # TLB accesses on write requests (Count)
system.cpu5.mmu.dtb.rdMisses                        0                       # TLB misses on read requests (Count)
system.cpu5.mmu.dtb.wrMisses                        0                       # TLB misses on write requests (Count)
system.cpu5.mmu.dtb.walker.power_state.pwrStateResidencyTicks::UNDEFINED 32159261661000                       # Cumulative time (in ticks) in various power states (Tick)
system.cpu5.mmu.itb.rdAccesses                      0                       # TLB accesses on read requests (Count)
system.cpu5.mmu.itb.wrAccesses                      0                       # TLB accesses on write requests (Count)
system.cpu5.mmu.itb.rdMisses                        0                       # TLB misses on read requests (Count)
system.cpu5.mmu.itb.wrMisses                        0                       # TLB misses on write requests (Count)
system.cpu5.mmu.itb.walker.power_state.pwrStateResidencyTicks::UNDEFINED 32159261661000                       # Cumulative time (in ticks) in various power states (Tick)
system.cpu5.power_state.pwrStateResidencyTicks::ON 32159261661000                       # Cumulative time (in ticks) in various power states (Tick)
system.cpu5.thread_0.numInsts                       0                       # Number of Instructions committed (Count)
system.cpu5.thread_0.numOps                         0                       # Number of Ops committed (Count)
system.cpu5.thread_0.numMemRefs                     0                       # Number of Memory References (Count)
system.cpu6.numCycles                     64325352006                       # Number of cpu cycles simulated (Cycle)
system.cpu6.numWorkItemsStarted                     0                       # Number of work items this cpu started (Count)
system.cpu6.numWorkItemsCompleted                   0                       # Number of work items this cpu completed (Count)
system.cpu6.committedInsts                   84020618                       # Number of instructions committed (Count)
system.cpu6.numVMExits                          88192                       # total number of KVM exits (Count)
system.cpu6.numVMHalfEntries                        0                       # number of KVM entries to finalize pending operations (Count)
system.cpu6.numExitSignal                       30910                       # exits due to signal delivery (Count)
system.cpu6.numMMIO                             28804                       # number of VM exits due to memory mapped IO (Count)
system.cpu6.numCoalescedMMIO                        0                       # number of coalesced memory mapped IO requests (Count)
system.cpu6.numIO                                 414                       # number of VM exits due to legacy IO (Count)
system.cpu6.numHalt                             17417                       # number of VM exits due to wait for interrupt instructions (Count)
system.cpu6.numInterrupts                       28111                       # number of interrupts delivered (Count)
system.cpu6.numHypercalls                           0                       # number of hypercalls (Count)
system.cpu6.interrupts.clk_domain.clock          8000                       # Clock period in ticks (Tick)
system.cpu6.mmu.dtb.rdAccesses                      0                       # TLB accesses on read requests (Count)
system.cpu6.mmu.dtb.wrAccesses                      0                       # TLB accesses on write requests (Count)
system.cpu6.mmu.dtb.rdMisses                        0                       # TLB misses on read requests (Count)
system.cpu6.mmu.dtb.wrMisses                        0                       # TLB misses on write requests (Count)
system.cpu6.mmu.dtb.walker.power_state.pwrStateResidencyTicks::UNDEFINED 32159261661000                       # Cumulative time (in ticks) in various power states (Tick)
system.cpu6.mmu.itb.rdAccesses                      0                       # TLB accesses on read requests (Count)
system.cpu6.mmu.itb.wrAccesses                      0                       # TLB accesses on write requests (Count)
system.cpu6.mmu.itb.rdMisses                        0                       # TLB misses on read requests (Count)
system.cpu6.mmu.itb.wrMisses                        0                       # TLB misses on write requests (Count)
system.cpu6.mmu.itb.walker.power_state.pwrStateResidencyTicks::UNDEFINED 32159261661000                       # Cumulative time (in ticks) in various power states (Tick)
system.cpu6.power_state.pwrStateResidencyTicks::ON 32159261661000                       # Cumulative time (in ticks) in various power states (Tick)
system.cpu6.thread_0.numInsts                       0                       # Number of Instructions committed (Count)
system.cpu6.thread_0.numOps                         0                       # Number of Ops committed (Count)
system.cpu6.thread_0.numMemRefs                     0                       # Number of Memory References (Count)
system.cpu7.numCycles                     64341724612                       # Number of cpu cycles simulated (Cycle)
system.cpu7.numWorkItemsStarted                     0                       # Number of work items this cpu started (Count)
system.cpu7.numWorkItemsCompleted                   0                       # Number of work items this cpu completed (Count)
system.cpu7.committedInsts                  100337930                       # Number of instructions committed (Count)
system.cpu7.numVMExits                          91418                       # total number of KVM exits (Count)
system.cpu7.numVMHalfEntries                        0                       # number of KVM entries to finalize pending operations (Count)
system.cpu7.numExitSignal                       30763                       # exits due to signal delivery (Count)
system.cpu7.numMMIO                             29446                       # number of VM exits due to memory mapped IO (Count)
system.cpu7.numCoalescedMMIO                        0                       # number of coalesced memory mapped IO requests (Count)
system.cpu7.numIO                                2705                       # number of VM exits due to legacy IO (Count)
system.cpu7.numHalt                             17326                       # number of VM exits due to wait for interrupt instructions (Count)
system.cpu7.numInterrupts                       28572                       # number of interrupts delivered (Count)
system.cpu7.numHypercalls                           0                       # number of hypercalls (Count)
system.cpu7.interrupts.clk_domain.clock          8000                       # Clock period in ticks (Tick)
system.cpu7.mmu.dtb.rdAccesses                      0                       # TLB accesses on read requests (Count)
system.cpu7.mmu.dtb.wrAccesses                      0                       # TLB accesses on write requests (Count)
system.cpu7.mmu.dtb.rdMisses                        0                       # TLB misses on read requests (Count)
system.cpu7.mmu.dtb.wrMisses                        0                       # TLB misses on write requests (Count)
system.cpu7.mmu.dtb.walker.power_state.pwrStateResidencyTicks::UNDEFINED 32159261661000                       # Cumulative time (in ticks) in various power states (Tick)
system.cpu7.mmu.itb.rdAccesses                      0                       # TLB accesses on read requests (Count)
system.cpu7.mmu.itb.wrAccesses                      0                       # TLB accesses on write requests (Count)
system.cpu7.mmu.itb.rdMisses                        0                       # TLB misses on read requests (Count)
system.cpu7.mmu.itb.wrMisses                        0                       # TLB misses on write requests (Count)
system.cpu7.mmu.itb.walker.power_state.pwrStateResidencyTicks::UNDEFINED 32159261661000                       # Cumulative time (in ticks) in various power states (Tick)
system.cpu7.power_state.pwrStateResidencyTicks::ON 32159261661000                       # Cumulative time (in ticks) in various power states (Tick)
system.cpu7.thread_0.numInsts                       0                       # Number of Instructions committed (Count)
system.cpu7.thread_0.numOps                         0                       # Number of Ops committed (Count)
system.cpu7.thread_0.numMemRefs                     0                       # Number of Memory References (Count)
system.cpu8.numCycles                     64318198488                       # Number of cpu cycles simulated (Cycle)
system.cpu8.numWorkItemsStarted                     0                       # Number of work items this cpu started (Count)
system.cpu8.numWorkItemsCompleted                   0                       # Number of work items this cpu completed (Count)
system.cpu8.committedInsts                  106699410                       # Number of instructions committed (Count)
system.cpu8.numVMExits                          91288                       # total number of KVM exits (Count)
system.cpu8.numVMHalfEntries                        0                       # number of KVM entries to finalize pending operations (Count)
system.cpu8.numExitSignal                       31090                       # exits due to signal delivery (Count)
system.cpu8.numMMIO                             30341                       # number of VM exits due to memory mapped IO (Count)
system.cpu8.numCoalescedMMIO                        0                       # number of coalesced memory mapped IO requests (Count)
system.cpu8.numIO                                 681                       # number of VM exits due to legacy IO (Count)
system.cpu8.numHalt                             17533                       # number of VM exits due to wait for interrupt instructions (Count)
system.cpu8.numInterrupts                       29213                       # number of interrupts delivered (Count)
system.cpu8.numHypercalls                           0                       # number of hypercalls (Count)
system.cpu8.interrupts.clk_domain.clock          8000                       # Clock period in ticks (Tick)
system.cpu8.mmu.dtb.rdAccesses                      0                       # TLB accesses on read requests (Count)
system.cpu8.mmu.dtb.wrAccesses                      0                       # TLB accesses on write requests (Count)
system.cpu8.mmu.dtb.rdMisses                        0                       # TLB misses on read requests (Count)
system.cpu8.mmu.dtb.wrMisses                        0                       # TLB misses on write requests (Count)
system.cpu8.mmu.dtb.walker.power_state.pwrStateResidencyTicks::UNDEFINED 32159261661000                       # Cumulative time (in ticks) in various power states (Tick)
system.cpu8.mmu.itb.rdAccesses                      0                       # TLB accesses on read requests (Count)
system.cpu8.mmu.itb.wrAccesses                      0                       # TLB accesses on write requests (Count)
system.cpu8.mmu.itb.rdMisses                        0                       # TLB misses on read requests (Count)
system.cpu8.mmu.itb.wrMisses                        0                       # TLB misses on write requests (Count)
system.cpu8.mmu.itb.walker.power_state.pwrStateResidencyTicks::UNDEFINED 32159261661000                       # Cumulative time (in ticks) in various power states (Tick)
system.cpu8.power_state.pwrStateResidencyTicks::ON 32159261661000                       # Cumulative time (in ticks) in various power states (Tick)
system.cpu8.thread_0.numInsts                       0                       # Number of Instructions committed (Count)
system.cpu8.thread_0.numOps                         0                       # Number of Ops committed (Count)
system.cpu8.thread_0.numMemRefs                     0                       # Number of Memory References (Count)
system.cpu9.numCycles                     64331928072                       # Number of cpu cycles simulated (Cycle)
system.cpu9.numWorkItemsStarted                     0                       # Number of work items this cpu started (Count)
system.cpu9.numWorkItemsCompleted                   0                       # Number of work items this cpu completed (Count)
system.cpu9.committedInsts                  233550633                       # Number of instructions committed (Count)
system.cpu9.numVMExits                         102561                       # total number of KVM exits (Count)
system.cpu9.numVMHalfEntries                        0                       # number of KVM entries to finalize pending operations (Count)
system.cpu9.numExitSignal                       31653                       # exits due to signal delivery (Count)
system.cpu9.numMMIO                             30501                       # number of VM exits due to memory mapped IO (Count)
system.cpu9.numCoalescedMMIO                        0                       # number of coalesced memory mapped IO requests (Count)
system.cpu9.numIO                               10773                       # number of VM exits due to legacy IO (Count)
system.cpu9.numHalt                             17561                       # number of VM exits due to wait for interrupt instructions (Count)
system.cpu9.numInterrupts                       29728                       # number of interrupts delivered (Count)
system.cpu9.numHypercalls                           0                       # number of hypercalls (Count)
system.cpu9.interrupts.clk_domain.clock          8000                       # Clock period in ticks (Tick)
system.cpu9.mmu.dtb.rdAccesses                      0                       # TLB accesses on read requests (Count)
system.cpu9.mmu.dtb.wrAccesses                      0                       # TLB accesses on write requests (Count)
system.cpu9.mmu.dtb.rdMisses                        0                       # TLB misses on read requests (Count)
system.cpu9.mmu.dtb.wrMisses                        0                       # TLB misses on write requests (Count)
system.cpu9.mmu.dtb.walker.power_state.pwrStateResidencyTicks::UNDEFINED 32159261661000                       # Cumulative time (in ticks) in various power states (Tick)
system.cpu9.mmu.itb.rdAccesses                      0                       # TLB accesses on read requests (Count)
system.cpu9.mmu.itb.wrAccesses                      0                       # TLB accesses on write requests (Count)
system.cpu9.mmu.itb.rdMisses                        0                       # TLB misses on read requests (Count)
system.cpu9.mmu.itb.wrMisses                        0                       # TLB misses on write requests (Count)
system.cpu9.mmu.itb.walker.power_state.pwrStateResidencyTicks::UNDEFINED 32159261661000                       # Cumulative time (in ticks) in various power states (Tick)
system.cpu9.power_state.pwrStateResidencyTicks::ON 32159261661000                       # Cumulative time (in ticks) in various power states (Tick)
system.cpu9.thread_0.numInsts                       0                       # Number of Instructions committed (Count)
system.cpu9.thread_0.numOps                         0                       # Number of Ops committed (Count)
system.cpu9.thread_0.numMemRefs                     0                       # Number of Memory References (Count)
system.cpu_clk_domain.clock                       500                       # Clock period in ticks (Tick)
system.cpu_voltage_domain.voltage                   1                       # Voltage in Volts (Volt)
system.iobridge.power_state.pwrStateResidencyTicks::UNDEFINED 32159261661000                       # Cumulative time (in ticks) in various power states (Tick)
system.iobus.transDist::ReadReq                112533                       # Transaction distribution (Count)
system.iobus.transDist::ReadResp               112533                       # Transaction distribution (Count)
system.iobus.transDist::WriteReq               883498                       # Transaction distribution (Count)
system.iobus.transDist::WriteResp              883498                       # Transaction distribution (Count)
system.iobus.pktCount_system.bridge.mem_side_port::system.pc.south_bridge.cmos.pio          156                       # Packet count per connected requestor and responder (Count)
system.iobus.pktCount_system.bridge.mem_side_port::system.pc.south_bridge.ide.pio        73408                       # Packet count per connected requestor and responder (Count)
system.iobus.pktCount_system.bridge.mem_side_port::system.pc.south_bridge.keyboard.pio          268                       # Packet count per connected requestor and responder (Count)
system.iobus.pktCount_system.bridge.mem_side_port::system.pc.south_bridge.pic1.pio           82                       # Packet count per connected requestor and responder (Count)
system.iobus.pktCount_system.bridge.mem_side_port::system.pc.south_bridge.pic2.pio           54                       # Packet count per connected requestor and responder (Count)
system.iobus.pktCount_system.bridge.mem_side_port::system.pc.south_bridge.pit.pio          224                       # Packet count per connected requestor and responder (Count)
system.iobus.pktCount_system.bridge.mem_side_port::system.pc.south_bridge.speaker.pio         6104                       # Packet count per connected requestor and responder (Count)
system.iobus.pktCount_system.bridge.mem_side_port::system.pc.south_bridge.io_apic.pio          868                       # Packet count per connected requestor and responder (Count)
system.iobus.pktCount_system.bridge.mem_side_port::system.pc.com_1.pio       140836                       # Packet count per connected requestor and responder (Count)
system.iobus.pktCount_system.bridge.mem_side_port::system.pc.fake_com_2.pio           12                       # Packet count per connected requestor and responder (Count)
system.iobus.pktCount_system.bridge.mem_side_port::system.pc.fake_com_3.pio           12                       # Packet count per connected requestor and responder (Count)
system.iobus.pktCount_system.bridge.mem_side_port::system.pc.fake_com_4.pio           12                       # Packet count per connected requestor and responder (Count)
system.iobus.pktCount_system.bridge.mem_side_port::system.pc.pci_host.pio          350                       # Packet count per connected requestor and responder (Count)
system.iobus.pktCount_system.bridge.mem_side_port::system.pc.default_bus.cpu_side_ports[0]           16                       # Packet count per connected requestor and responder (Count)
system.iobus.pktCount_system.bridge.mem_side_port::total       222402                       # Packet count per connected requestor and responder (Count)
system.iobus.pktCount_system.pc.south_bridge.ide.dma::system.iobridge.cpu_side_port      1751190                       # Packet count per connected requestor and responder (Count)
system.iobus.pktCount_system.pc.south_bridge.ide.dma::total      1751190                       # Packet count per connected requestor and responder (Count)
system.iobus.pktCount_system.pc.south_bridge.io_apic.int_request::system.apicbridge.cpu_side_port        18470                       # Packet count per connected requestor and responder (Count)
system.iobus.pktCount_system.pc.south_bridge.io_apic.int_request::total        18470                       # Packet count per connected requestor and responder (Count)
system.iobus.pktCount::total                  1992062                       # Packet count per connected requestor and responder (Count)
system.iobus.pktSize_system.bridge.mem_side_port::system.pc.south_bridge.cmos.pio           78                       # Cumulative packet size per connected requestor and responder (Byte)
system.iobus.pktSize_system.bridge.mem_side_port::system.pc.south_bridge.ide.pio        41914                       # Cumulative packet size per connected requestor and responder (Byte)
system.iobus.pktSize_system.bridge.mem_side_port::system.pc.south_bridge.keyboard.pio          134                       # Cumulative packet size per connected requestor and responder (Byte)
system.iobus.pktSize_system.bridge.mem_side_port::system.pc.south_bridge.pic1.pio           41                       # Cumulative packet size per connected requestor and responder (Byte)
system.iobus.pktSize_system.bridge.mem_side_port::system.pc.south_bridge.pic2.pio           27                       # Cumulative packet size per connected requestor and responder (Byte)
system.iobus.pktSize_system.bridge.mem_side_port::system.pc.south_bridge.pit.pio          112                       # Cumulative packet size per connected requestor and responder (Byte)
system.iobus.pktSize_system.bridge.mem_side_port::system.pc.south_bridge.speaker.pio         3052                       # Cumulative packet size per connected requestor and responder (Byte)
system.iobus.pktSize_system.bridge.mem_side_port::system.pc.south_bridge.io_apic.pio         1736                       # Cumulative packet size per connected requestor and responder (Byte)
system.iobus.pktSize_system.bridge.mem_side_port::system.pc.com_1.pio        70418                       # Cumulative packet size per connected requestor and responder (Byte)
system.iobus.pktSize_system.bridge.mem_side_port::system.pc.fake_com_2.pio            6                       # Cumulative packet size per connected requestor and responder (Byte)
system.iobus.pktSize_system.bridge.mem_side_port::system.pc.fake_com_3.pio            6                       # Cumulative packet size per connected requestor and responder (Byte)
system.iobus.pktSize_system.bridge.mem_side_port::system.pc.fake_com_4.pio            6                       # Cumulative packet size per connected requestor and responder (Byte)
system.iobus.pktSize_system.bridge.mem_side_port::system.pc.pci_host.pio          461                       # Cumulative packet size per connected requestor and responder (Byte)
system.iobus.pktSize_system.bridge.mem_side_port::system.pc.default_bus.cpu_side_ports[0]            8                       # Cumulative packet size per connected requestor and responder (Byte)
system.iobus.pktSize_system.bridge.mem_side_port::total       117999                       # Cumulative packet size per connected requestor and responder (Byte)
system.iobus.pktSize_system.pc.south_bridge.ide.dma::system.iobridge.cpu_side_port     55702360                       # Cumulative packet size per connected requestor and responder (Byte)
system.iobus.pktSize_system.pc.south_bridge.ide.dma::total     55702360                       # Cumulative packet size per connected requestor and responder (Byte)
system.iobus.pktSize_system.pc.south_bridge.io_apic.int_request::system.apicbridge.cpu_side_port        36940                       # Cumulative packet size per connected requestor and responder (Byte)
system.iobus.pktSize_system.pc.south_bridge.io_apic.int_request::total        36940                       # Cumulative packet size per connected requestor and responder (Byte)
system.iobus.pktSize::total                  55857299                       # Cumulative packet size per connected requestor and responder (Byte)
system.iobus.power_state.pwrStateResidencyTicks::UNDEFINED 32159261661000                       # Cumulative time (in ticks) in various power states (Tick)
system.mem_ctrls0.priorityMinLatency     0.000000000000                       # per QoS priority minimum request to response latency (Second)
system.mem_ctrls0.priorityMaxLatency     0.000000000000                       # per QoS priority maximum request to response latency (Second)
system.mem_ctrls0.numReadWriteTurnArounds            0                       # Number of turnarounds from READ to WRITE (Count)
system.mem_ctrls0.numWriteReadTurnArounds            0                       # Number of turnarounds from WRITE to READ (Count)
system.mem_ctrls0.numStayReadState                  0                       # Number of times bus staying in READ state (Count)
system.mem_ctrls0.numStayWriteState                 0                       # Number of times bus staying in WRITE state (Count)
system.mem_ctrls0.readReqs                          0                       # Number of read requests accepted (Count)
system.mem_ctrls0.writeReqs                         0                       # Number of write requests accepted (Count)
system.mem_ctrls0.readBursts                        0                       # Number of controller read bursts, including those serviced by the write queue (Count)
system.mem_ctrls0.writeBursts                       0                       # Number of controller write bursts, including those merged in the write queue (Count)
system.mem_ctrls0.servicedByWrQ                     0                       # Number of controller read bursts serviced by the write queue (Count)
system.mem_ctrls0.mergedWrBursts                    0                       # Number of controller write bursts merged with an existing one (Count)
system.mem_ctrls0.neitherReadNorWriteReqs            0                       # Number of requests that are neither read nor write (Count)
system.mem_ctrls0.avgRdQLen                      0.00                       # Average read queue length when enqueuing ((Count/Tick))
system.mem_ctrls0.avgWrQLen                      0.00                       # Average write queue length when enqueuing ((Count/Tick))
system.mem_ctrls0.numRdRetry                        0                       # Number of times read queue was full causing retry (Count)
system.mem_ctrls0.numWrRetry                        0                       # Number of times write queue was full causing retry (Count)
system.mem_ctrls0.readPktSize::0                    0                       # Read request sizes (log2) (Count)
system.mem_ctrls0.readPktSize::1                    0                       # Read request sizes (log2) (Count)
system.mem_ctrls0.readPktSize::2                    0                       # Read request sizes (log2) (Count)
system.mem_ctrls0.readPktSize::3                    0                       # Read request sizes (log2) (Count)
system.mem_ctrls0.readPktSize::4                    0                       # Read request sizes (log2) (Count)
system.mem_ctrls0.readPktSize::5                    0                       # Read request sizes (log2) (Count)
system.mem_ctrls0.readPktSize::6                    0                       # Read request sizes (log2) (Count)
system.mem_ctrls0.writePktSize::0                   0                       # Write request sizes (log2) (Count)
system.mem_ctrls0.writePktSize::1                   0                       # Write request sizes (log2) (Count)
system.mem_ctrls0.writePktSize::2                   0                       # Write request sizes (log2) (Count)
system.mem_ctrls0.writePktSize::3                   0                       # Write request sizes (log2) (Count)
system.mem_ctrls0.writePktSize::4                   0                       # Write request sizes (log2) (Count)
system.mem_ctrls0.writePktSize::5                   0                       # Write request sizes (log2) (Count)
system.mem_ctrls0.writePktSize::6                   0                       # Write request sizes (log2) (Count)
system.mem_ctrls0.rdQLenPdf::0                      0                       # What read queue length does an incoming req see (Count)
system.mem_ctrls0.rdQLenPdf::1                      0                       # What read queue length does an incoming req see (Count)
system.mem_ctrls0.rdQLenPdf::2                      0                       # What read queue length does an incoming req see (Count)
system.mem_ctrls0.rdQLenPdf::3                      0                       # What read queue length does an incoming req see (Count)
system.mem_ctrls0.rdQLenPdf::4                      0                       # What read queue length does an incoming req see (Count)
system.mem_ctrls0.rdQLenPdf::5                      0                       # What read queue length does an incoming req see (Count)
system.mem_ctrls0.rdQLenPdf::6                      0                       # What read queue length does an incoming req see (Count)
system.mem_ctrls0.rdQLenPdf::7                      0                       # What read queue length does an incoming req see (Count)
system.mem_ctrls0.rdQLenPdf::8                      0                       # What read queue length does an incoming req see (Count)
system.mem_ctrls0.rdQLenPdf::9                      0                       # What read queue length does an incoming req see (Count)
system.mem_ctrls0.rdQLenPdf::10                     0                       # What read queue length does an incoming req see (Count)
system.mem_ctrls0.rdQLenPdf::11                     0                       # What read queue length does an incoming req see (Count)
system.mem_ctrls0.rdQLenPdf::12                     0                       # What read queue length does an incoming req see (Count)
system.mem_ctrls0.rdQLenPdf::13                     0                       # What read queue length does an incoming req see (Count)
system.mem_ctrls0.rdQLenPdf::14                     0                       # What read queue length does an incoming req see (Count)
system.mem_ctrls0.rdQLenPdf::15                     0                       # What read queue length does an incoming req see (Count)
system.mem_ctrls0.rdQLenPdf::16                     0                       # What read queue length does an incoming req see (Count)
system.mem_ctrls0.rdQLenPdf::17                     0                       # What read queue length does an incoming req see (Count)
system.mem_ctrls0.rdQLenPdf::18                     0                       # What read queue length does an incoming req see (Count)
system.mem_ctrls0.rdQLenPdf::19                     0                       # What read queue length does an incoming req see (Count)
system.mem_ctrls0.rdQLenPdf::20                     0                       # What read queue length does an incoming req see (Count)
system.mem_ctrls0.rdQLenPdf::21                     0                       # What read queue length does an incoming req see (Count)
system.mem_ctrls0.rdQLenPdf::22                     0                       # What read queue length does an incoming req see (Count)
system.mem_ctrls0.rdQLenPdf::23                     0                       # What read queue length does an incoming req see (Count)
system.mem_ctrls0.rdQLenPdf::24                     0                       # What read queue length does an incoming req see (Count)
system.mem_ctrls0.rdQLenPdf::25                     0                       # What read queue length does an incoming req see (Count)
system.mem_ctrls0.rdQLenPdf::26                     0                       # What read queue length does an incoming req see (Count)
system.mem_ctrls0.rdQLenPdf::27                     0                       # What read queue length does an incoming req see (Count)
system.mem_ctrls0.rdQLenPdf::28                     0                       # What read queue length does an incoming req see (Count)
system.mem_ctrls0.rdQLenPdf::29                     0                       # What read queue length does an incoming req see (Count)
system.mem_ctrls0.rdQLenPdf::30                     0                       # What read queue length does an incoming req see (Count)
system.mem_ctrls0.rdQLenPdf::31                     0                       # What read queue length does an incoming req see (Count)
system.mem_ctrls0.wrQLenPdf::0                      0                       # What write queue length does an incoming req see (Count)
system.mem_ctrls0.wrQLenPdf::1                      0                       # What write queue length does an incoming req see (Count)
system.mem_ctrls0.wrQLenPdf::2                      0                       # What write queue length does an incoming req see (Count)
system.mem_ctrls0.wrQLenPdf::3                      0                       # What write queue length does an incoming req see (Count)
system.mem_ctrls0.wrQLenPdf::4                      0                       # What write queue length does an incoming req see (Count)
system.mem_ctrls0.wrQLenPdf::5                      0                       # What write queue length does an incoming req see (Count)
system.mem_ctrls0.wrQLenPdf::6                      0                       # What write queue length does an incoming req see (Count)
system.mem_ctrls0.wrQLenPdf::7                      0                       # What write queue length does an incoming req see (Count)
system.mem_ctrls0.wrQLenPdf::8                      0                       # What write queue length does an incoming req see (Count)
system.mem_ctrls0.wrQLenPdf::9                      0                       # What write queue length does an incoming req see (Count)
system.mem_ctrls0.wrQLenPdf::10                     0                       # What write queue length does an incoming req see (Count)
system.mem_ctrls0.wrQLenPdf::11                     0                       # What write queue length does an incoming req see (Count)
system.mem_ctrls0.wrQLenPdf::12                     0                       # What write queue length does an incoming req see (Count)
system.mem_ctrls0.wrQLenPdf::13                     0                       # What write queue length does an incoming req see (Count)
system.mem_ctrls0.wrQLenPdf::14                     0                       # What write queue length does an incoming req see (Count)
system.mem_ctrls0.wrQLenPdf::15                     0                       # What write queue length does an incoming req see (Count)
system.mem_ctrls0.wrQLenPdf::16                     0                       # What write queue length does an incoming req see (Count)
system.mem_ctrls0.wrQLenPdf::17                     0                       # What write queue length does an incoming req see (Count)
system.mem_ctrls0.wrQLenPdf::18                     0                       # What write queue length does an incoming req see (Count)
system.mem_ctrls0.wrQLenPdf::19                     0                       # What write queue length does an incoming req see (Count)
system.mem_ctrls0.wrQLenPdf::20                     0                       # What write queue length does an incoming req see (Count)
system.mem_ctrls0.wrQLenPdf::21                     0                       # What write queue length does an incoming req see (Count)
system.mem_ctrls0.wrQLenPdf::22                     0                       # What write queue length does an incoming req see (Count)
system.mem_ctrls0.wrQLenPdf::23                     0                       # What write queue length does an incoming req see (Count)
system.mem_ctrls0.wrQLenPdf::24                     0                       # What write queue length does an incoming req see (Count)
system.mem_ctrls0.wrQLenPdf::25                     0                       # What write queue length does an incoming req see (Count)
system.mem_ctrls0.wrQLenPdf::26                     0                       # What write queue length does an incoming req see (Count)
system.mem_ctrls0.wrQLenPdf::27                     0                       # What write queue length does an incoming req see (Count)
system.mem_ctrls0.wrQLenPdf::28                     0                       # What write queue length does an incoming req see (Count)
system.mem_ctrls0.wrQLenPdf::29                     0                       # What write queue length does an incoming req see (Count)
system.mem_ctrls0.wrQLenPdf::30                     0                       # What write queue length does an incoming req see (Count)
system.mem_ctrls0.wrQLenPdf::31                     0                       # What write queue length does an incoming req see (Count)
system.mem_ctrls0.wrQLenPdf::32                     0                       # What write queue length does an incoming req see (Count)
system.mem_ctrls0.wrQLenPdf::33                     0                       # What write queue length does an incoming req see (Count)
system.mem_ctrls0.wrQLenPdf::34                     0                       # What write queue length does an incoming req see (Count)
system.mem_ctrls0.wrQLenPdf::35                     0                       # What write queue length does an incoming req see (Count)
system.mem_ctrls0.wrQLenPdf::36                     0                       # What write queue length does an incoming req see (Count)
system.mem_ctrls0.wrQLenPdf::37                     0                       # What write queue length does an incoming req see (Count)
system.mem_ctrls0.wrQLenPdf::38                     0                       # What write queue length does an incoming req see (Count)
system.mem_ctrls0.wrQLenPdf::39                     0                       # What write queue length does an incoming req see (Count)
system.mem_ctrls0.wrQLenPdf::40                     0                       # What write queue length does an incoming req see (Count)
system.mem_ctrls0.wrQLenPdf::41                     0                       # What write queue length does an incoming req see (Count)
system.mem_ctrls0.wrQLenPdf::42                     0                       # What write queue length does an incoming req see (Count)
system.mem_ctrls0.wrQLenPdf::43                     0                       # What write queue length does an incoming req see (Count)
system.mem_ctrls0.wrQLenPdf::44                     0                       # What write queue length does an incoming req see (Count)
system.mem_ctrls0.wrQLenPdf::45                     0                       # What write queue length does an incoming req see (Count)
system.mem_ctrls0.wrQLenPdf::46                     0                       # What write queue length does an incoming req see (Count)
[...]
system.membus.pktSize_system.cpu13.dcache_port::total       123576                       # Cumulative packet size per connected requestor and responder (Byte)
system.membus.pktSize_system.cpu13.interrupts.int_requestor::system.cpu00.interrupts.int_responder           20                       # Cumulative packet size per connected requestor and responder (Byte)
system.membus.pktSize_system.cpu13.interrupts.int_requestor::system.cpu01.interrupts.int_responder           72                       # Cumulative packet size per connected requestor and responder (Byte)
system.membus.pktSize_system.cpu13.interrupts.int_requestor::system.cpu02.interrupts.int_responder           36                       # Cumulative packet size per connected requestor and responder (Byte)
system.membus.pktSize_system.cpu13.interrupts.int_requestor::system.cpu03.interrupts.int_responder           32                       # Cumulative packet size per connected requestor and responder (Byte)
system.membus.pktSize_system.cpu13.interrupts.int_requestor::system.cpu04.interrupts.int_responder            8                       # Cumulative packet size per connected requestor and responder (Byte)
system.membus.pktSize_system.cpu13.interrupts.int_requestor::system.cpu05.interrupts.int_responder           28                       # Cumulative packet size per connected requestor and responder (Byte)
system.membus.pktSize_system.cpu13.interrupts.int_requestor::system.cpu06.interrupts.int_responder           40                       # Cumulative packet size per connected requestor and responder (Byte)
system.membus.pktSize_system.cpu13.interrupts.int_requestor::system.cpu07.interrupts.int_responder           32                       # Cumulative packet size per connected requestor and responder (Byte)
system.membus.pktSize_system.cpu13.interrupts.int_requestor::system.cpu08.interrupts.int_responder           12                       # Cumulative packet size per connected requestor and responder (Byte)
system.membus.pktSize_system.cpu13.interrupts.int_requestor::system.cpu09.interrupts.int_responder            8                       # Cumulative packet size per connected requestor and responder (Byte)
system.membus.pktSize_system.cpu13.interrupts.int_requestor::system.cpu10.interrupts.int_responder           44                       # Cumulative packet size per connected requestor and responder (Byte)
system.membus.pktSize_system.cpu13.interrupts.int_requestor::system.cpu11.interrupts.int_responder           64                       # Cumulative packet size per connected requestor and responder (Byte)
system.membus.pktSize_system.cpu13.interrupts.int_requestor::system.cpu12.interrupts.int_responder           84                       # Cumulative packet size per connected requestor and responder (Byte)
system.membus.pktSize_system.cpu13.interrupts.int_requestor::system.cpu14.interrupts.int_responder          120                       # Cumulative packet size per connected requestor and responder (Byte)
system.membus.pktSize_system.cpu13.interrupts.int_requestor::system.cpu15.interrupts.int_responder           16                       # Cumulative packet size per connected requestor and responder (Byte)
system.membus.pktSize_system.cpu13.interrupts.int_requestor::total          616                       # Cumulative packet size per connected requestor and responder (Byte)
system.membus.pktSize_system.cpu14.dcache_port::system.bridge.cpu_side_port         1284                       # Cumulative packet size per connected requestor and responder (Byte)
system.membus.pktSize_system.cpu14.dcache_port::system.cpu14.interrupts.pio       119680                       # Cumulative packet size per connected requestor and responder (Byte)
system.membus.pktSize_system.cpu14.dcache_port::total       120964                       # Cumulative packet size per connected requestor and responder (Byte)
system.membus.pktSize_system.cpu14.interrupts.int_requestor::system.cpu00.interrupts.int_responder           12                       # Cumulative packet size per connected requestor and responder (Byte)
system.membus.pktSize_system.cpu14.interrupts.int_requestor::system.cpu01.interrupts.int_responder           60                       # Cumulative packet size per connected requestor and responder (Byte)
system.membus.pktSize_system.cpu14.interrupts.int_requestor::system.cpu02.interrupts.int_responder           24                       # Cumulative packet size per connected requestor and responder (Byte)
system.membus.pktSize_system.cpu14.interrupts.int_requestor::system.cpu03.interrupts.int_responder           28                       # Cumulative packet size per connected requestor and responder (Byte)
system.membus.pktSize_system.cpu14.interrupts.int_requestor::system.cpu04.interrupts.int_responder            8                       # Cumulative packet size per connected requestor and responder (Byte)
system.membus.pktSize_system.cpu14.interrupts.int_requestor::system.cpu05.interrupts.int_responder           40                       # Cumulative packet size per connected requestor and responder (Byte)
system.membus.pktSize_system.cpu14.interrupts.int_requestor::system.cpu06.interrupts.int_responder           64                       # Cumulative packet size per connected requestor and responder (Byte)
system.membus.pktSize_system.cpu14.interrupts.int_requestor::system.cpu07.interrupts.int_responder          136                       # Cumulative packet size per connected requestor and responder (Byte)
system.membus.pktSize_system.cpu14.interrupts.int_requestor::system.cpu08.interrupts.int_responder           76                       # Cumulative packet size per connected requestor and responder (Byte)
system.membus.pktSize_system.cpu14.interrupts.int_requestor::system.cpu09.interrupts.int_responder            8                       # Cumulative packet size per connected requestor and responder (Byte)
system.membus.pktSize_system.cpu14.interrupts.int_requestor::system.cpu10.interrupts.int_responder           16                       # Cumulative packet size per connected requestor and responder (Byte)
system.membus.pktSize_system.cpu14.interrupts.int_requestor::system.cpu11.interrupts.int_responder           44                       # Cumulative packet size per connected requestor and responder (Byte)
system.membus.pktSize_system.cpu14.interrupts.int_requestor::system.cpu12.interrupts.int_responder           32                       # Cumulative packet size per connected requestor and responder (Byte)
system.membus.pktSize_system.cpu14.interrupts.int_requestor::system.cpu13.interrupts.int_responder           60                       # Cumulative packet size per connected requestor and responder (Byte)
system.membus.pktSize_system.cpu14.interrupts.int_requestor::system.cpu15.interrupts.int_responder           40                       # Cumulative packet size per connected requestor and responder (Byte)
system.membus.pktSize_system.cpu14.interrupts.int_requestor::total          648                       # Cumulative packet size per connected requestor and responder (Byte)
system.membus.pktSize_system.cpu15.dcache_port::system.bridge.cpu_side_port         1427                       # Cumulative packet size per connected requestor and responder (Byte)
system.membus.pktSize_system.cpu15.dcache_port::system.cpu15.interrupts.pio       122500                       # Cumulative packet size per connected requestor and responder (Byte)
system.membus.pktSize_system.cpu15.dcache_port::total       123927                       # Cumulative packet size per connected requestor and responder (Byte)
system.membus.pktSize_system.cpu15.interrupts.int_requestor::system.cpu00.interrupts.int_responder          124                       # Cumulative packet size per connected requestor and responder (Byte)
system.membus.pktSize_system.cpu15.interrupts.int_requestor::system.cpu01.interrupts.int_responder          224                       # Cumulative packet size per connected requestor and responder (Byte)
system.membus.pktSize_system.cpu15.interrupts.int_requestor::system.cpu02.interrupts.int_responder          136                       # Cumulative packet size per connected requestor and responder (Byte)
system.membus.pktSize_system.cpu15.interrupts.int_requestor::system.cpu03.interrupts.int_responder          120                       # Cumulative packet size per connected requestor and responder (Byte)
system.membus.pktSize_system.cpu15.interrupts.int_requestor::system.cpu04.interrupts.int_responder           60                       # Cumulative packet size per connected requestor and responder (Byte)
system.membus.pktSize_system.cpu15.interrupts.int_requestor::system.cpu05.interrupts.int_responder           84                       # Cumulative packet size per connected requestor and responder (Byte)
system.membus.pktSize_system.cpu15.interrupts.int_requestor::system.cpu06.interrupts.int_responder          152                       # Cumulative packet size per connected requestor and responder (Byte)
system.membus.pktSize_system.cpu15.interrupts.int_requestor::system.cpu07.interrupts.int_responder          132                       # Cumulative packet size per connected requestor and responder (Byte)
system.membus.pktSize_system.cpu15.interrupts.int_requestor::system.cpu08.interrupts.int_responder           68                       # Cumulative packet size per connected requestor and responder (Byte)
system.membus.pktSize_system.cpu15.interrupts.int_requestor::system.cpu09.interrupts.int_responder           60                       # Cumulative packet size per connected requestor and responder (Byte)
system.membus.pktSize_system.cpu15.interrupts.int_requestor::system.cpu10.interrupts.int_responder          140                       # Cumulative packet size per connected requestor and responder (Byte)
system.membus.pktSize_system.cpu15.interrupts.int_requestor::system.cpu11.interrupts.int_responder           92                       # Cumulative packet size per connected requestor and responder (Byte)
system.membus.pktSize_system.cpu15.interrupts.int_requestor::system.cpu12.interrupts.int_responder           80                       # Cumulative packet size per connected requestor and responder (Byte)
system.membus.pktSize_system.cpu15.interrupts.int_requestor::system.cpu13.interrupts.int_responder           92                       # Cumulative packet size per connected requestor and responder (Byte)
system.membus.pktSize_system.cpu15.interrupts.int_requestor::system.cpu14.interrupts.int_responder          180                       # Cumulative packet size per connected requestor and responder (Byte)
system.membus.pktSize_system.cpu15.interrupts.int_requestor::total         1744                       # Cumulative packet size per connected requestor and responder (Byte)
system.membus.pktSize::total                 57844583                       # Cumulative packet size per connected requestor and responder (Byte)
system.membus.snoops                                0                       # Total snoops (Count)
system.membus.snoopTraffic                          0                       # Total snoop traffic (Byte)
system.membus.snoopFanout::samples                  0                       # Request fanout histogram (Count)
system.membus.snoopFanout::mean                   nan                       # Request fanout histogram (Count)
system.membus.snoopFanout::stdev                  nan                       # Request fanout histogram (Count)
system.membus.snoopFanout::underflows               0                       # Request fanout histogram (Count)
system.membus.snoopFanout::0                        0                       # Request fanout histogram (Count)
system.membus.snoopFanout::overflows                0                       # Request fanout histogram (Count)
system.membus.snoopFanout::min_value                0                       # Request fanout histogram (Count)
system.membus.snoopFanout::max_value                0                       # Request fanout histogram (Count)
system.membus.snoopFanout::total                    0                       # Request fanout histogram (Count)
system.membus.badaddr_responder.power_state.pwrStateResidencyTicks::UNDEFINED 32159261661000                       # Cumulative time (in ticks) in various power states (Tick)
system.membus.power_state.pwrStateResidencyTicks::UNDEFINED 32159261661000                       # Cumulative time (in ticks) in various power states (Tick)
system.membus.snoop_filter.totRequests              0                       # Total number of requests made to the snoop filter. (Count)
system.membus.snoop_filter.hitSingleRequests            0                       # Number of requests hitting in the snoop filter with a single holder of the requested data. (Count)
system.membus.snoop_filter.hitMultiRequests            0                       # Number of requests hitting in the snoop filter with multiple (>1) holders of the requested data. (Count)
system.membus.snoop_filter.totSnoops                0                       # Total number of snoops made to the snoop filter. (Count)
system.membus.snoop_filter.hitSingleSnoops            0                       # Number of snoops hitting in the snoop filter with a single holder of the requested data. (Count)
system.membus.snoop_filter.hitMultiSnoops            0                       # Number of snoops hitting in the snoop filter with multiple (>1) holders of the requested data. (Count)
system.pc.bad_addr.power_state.pwrStateResidencyTicks::UNDEFINED 32159261661000                       # Cumulative time (in ticks) in various power states (Tick)
system.pc.com_1.power_state.pwrStateResidencyTicks::UNDEFINED 32159261661000                       # Cumulative time (in ticks) in various power states (Tick)
system.pc.default_bus.transDist::ReadReq            1                       # Transaction distribution (Count)
system.pc.default_bus.transDist::ReadResp            1                       # Transaction distribution (Count)
system.pc.default_bus.transDist::WriteReq            7                       # Transaction distribution (Count)
system.pc.default_bus.transDist::WriteResp            7                       # Transaction distribution (Count)
system.pc.default_bus.pktCount_system.iobus.default::system.pc.empty_isa.pio           16                       # Packet count per connected requestor and responder (Count)
system.pc.default_bus.pktCount_system.iobus.default::total           16                       # Packet count per connected requestor and responder (Count)
system.pc.default_bus.pktSize_system.iobus.default::system.pc.empty_isa.pio            8                       # Cumulative packet size per connected requestor and responder (Byte)
system.pc.default_bus.pktSize_system.iobus.default::total            8                       # Cumulative packet size per connected requestor and responder (Byte)
system.pc.default_bus.power_state.pwrStateResidencyTicks::UNDEFINED 32159261661000                       # Cumulative time (in ticks) in various power states (Tick)
system.pc.empty_isa.power_state.pwrStateResidencyTicks::UNDEFINED 32159261661000                       # Cumulative time (in ticks) in various power states (Tick)
system.pc.fake_com_2.power_state.pwrStateResidencyTicks::UNDEFINED 32159261661000                       # Cumulative time (in ticks) in various power states (Tick)
system.pc.fake_com_3.power_state.pwrStateResidencyTicks::UNDEFINED 32159261661000                       # Cumulative time (in ticks) in various power states (Tick)
system.pc.fake_com_4.power_state.pwrStateResidencyTicks::UNDEFINED 32159261661000                       # Cumulative time (in ticks) in various power states (Tick)
system.pc.fake_floppy.power_state.pwrStateResidencyTicks::UNDEFINED 32159261661000                       # Cumulative time (in ticks) in various power states (Tick)
system.pc.pci_host.power_state.pwrStateResidencyTicks::UNDEFINED 32159261661000                       # Cumulative time (in ticks) in various power states (Tick)
system.pc.south_bridge.cmos.power_state.pwrStateResidencyTicks::UNDEFINED 32159261661000                       # Cumulative time (in ticks) in various power states (Tick)
system.pc.south_bridge.dma1.power_state.pwrStateResidencyTicks::UNDEFINED 32159261661000                       # Cumulative time (in ticks) in various power states (Tick)
system.pc.south_bridge.ide.disks0.IdeDisk.dmaReadFullPages          688                       # Number of full page size DMA reads (not PRD). (Count)
system.pc.south_bridge.ide.disks0.IdeDisk.dmaReadBytes      2818048                       # Number of bytes transfered via DMA reads (not PRD). (Byte)
system.pc.south_bridge.ide.disks0.IdeDisk.dmaReadTxs          688                       # Number of DMA read transactions (not PRD). (Count)
system.pc.south_bridge.ide.disks0.IdeDisk.dmaWriteFullPages        12639                       # Number of full page size DMA writes. (Count)
system.pc.south_bridge.ide.disks0.IdeDisk.dmaWriteBytes     51771392                       # Number of bytes transfered via DMA writes. (Byte)
system.pc.south_bridge.ide.disks0.IdeDisk.dmaWriteTxs        12641                       # Number of DMA write transactions. (Count)
system.pc.south_bridge.ide.disks1.IdeDisk.dmaReadFullPages            0                       # Number of full page size DMA reads (not PRD). (Count)
system.pc.south_bridge.ide.disks1.IdeDisk.dmaReadBytes            0                       # Number of bytes transfered via DMA reads (not PRD). (Byte)
system.pc.south_bridge.ide.disks1.IdeDisk.dmaReadTxs            0                       # Number of DMA read transactions (not PRD). (Count)
system.pc.south_bridge.ide.disks1.IdeDisk.dmaWriteFullPages          260                       # Number of full page size DMA writes. (Count)
system.pc.south_bridge.ide.disks1.IdeDisk.dmaWriteBytes      1064960                       # Number of bytes transfered via DMA writes. (Byte)
system.pc.south_bridge.ide.disks1.IdeDisk.dmaWriteTxs          260                       # Number of DMA write transactions. (Count)
system.pc.south_bridge.ide.power_state.pwrStateResidencyTicks::UNDEFINED 32159261661000                       # Cumulative time (in ticks) in various power states (Tick)
system.pc.south_bridge.io_apic.power_state.pwrStateResidencyTicks::UNDEFINED 32159261661000                       # Cumulative time (in ticks) in various power states (Tick)
system.pc.south_bridge.keyboard.power_state.pwrStateResidencyTicks::UNDEFINED 32159261661000                       # Cumulative time (in ticks) in various power states (Tick)
system.pc.south_bridge.pic1.power_state.pwrStateResidencyTicks::UNDEFINED 32159261661000                       # Cumulative time (in ticks) in various power states (Tick)
system.pc.south_bridge.pic2.power_state.pwrStateResidencyTicks::UNDEFINED 32159261661000                       # Cumulative time (in ticks) in various power states (Tick)
system.pc.south_bridge.pit.power_state.pwrStateResidencyTicks::UNDEFINED 32159261661000                       # Cumulative time (in ticks) in various power states (Tick)
system.pc.south_bridge.speaker.power_state.pwrStateResidencyTicks::UNDEFINED 32159261661000                       # Cumulative time (in ticks) in various power states (Tick)
system.voltage_domain.voltage                       1                       # Voltage in Volts (Volt)
system.workload.inst.arm                            0                       # number of arm instructions executed (Count)
system.workload.inst.quiesce                        0                       # number of quiesce instructions executed (Count)

---------- End Simulation Statistics   ----------
